/*--------------------------------*- C++ -*----------------------------------*\
| =========                 |                                                 |
| \\      /  F ield         | OpenFOAM: The Open Source CFD Toolbox           |
|  \\    /   O peration     | Version:  4.x                                   |
|   \\  /    A nd           | Web:      www.OpenFOAM.org                      |
|    \\/     M anipulation  |                                                 |
\*---------------------------------------------------------------------------*/
FoamFile
{
    version     2.0;
    format      ascii;
    class       dictionary;
    object      postProcessingDict;
}
// * * * * * * * * * * * * * * * * * * * * * * * * * * * * * * * * * * * * * //

functions
{
    parcelPropertyInfo1
    {
        type            parcelPropertyInfo;
        libs ("libcloudFunctionObjects.so");
        enabled         true;
        writeControl   timeStep;
        writeInterval  1;

        clouds          (myCloud1);
    }
}

// ************************************************************************* //
